Circuit: * C:\Users\anshuman\Desktop\TVS Internship\LTSpice Simulations\audioamp1.asc

Direct Newton iteration for .op point succeeded.
N-Period=1
Fourier components of V(a)
DC component:-4.93784

Harmonic	Frequency	 Fourier 	Normalized	 Phase  	Normalized
 Number 	  [Hz]   	Component	 Component	[degree]	Phase [deg]
    1   	1.000e+03	0.000e+00	-1.#IOe+00	    0.00°	    0.00°
    2   	2.000e+03	0.000e+00	-1.#IOe+00	    0.00°	    0.00°
    3   	3.000e+03	0.000e+00	-1.#IOe+00	    0.00°	    0.00°
    4   	4.000e+03	0.000e+00	-1.#IOe+00	    0.00°	    0.00°
    5   	5.000e+03	0.000e+00	-1.#IOe+00	    0.00°	    0.00°
    6   	6.000e+03	0.000e+00	-1.#IOe+00	    0.00°	    0.00°
    7   	7.000e+03	0.000e+00	-1.#IOe+00	    0.00°	    0.00°
    8   	8.000e+03	0.000e+00	-1.#IOe+00	    0.00°	    0.00°
    9   	9.000e+03	0.000e+00	-1.#IOe+00	    0.00°	    0.00°
Total Harmonic Distortion: -1.#IND00%(0.000000%)



Date: Tue Jun 25 21:32:36 2019
Total elapsed time: 0.473 seconds.

tnom = 27
temp = 27
method = modified trap
totiter = 2074
traniter = 2056
tranpoints = 1029
accept = 1027
rejected = 2
matrix size = 43
fillins = 49
solver = Normal
Matrix Compiler1: 5.96 KB object code size  1.3/0.7/[0.4]
Matrix Compiler2: 4.83 KB object code size  0.5/0.7/[0.4]

