Circuit: * C:\Users\anshuman\Desktop\TVS Internship\LTSpice Simulations\Class-B.asc

Direct Newton iteration for .op point succeeded.

Date: Wed Jun 19 16:16:21 2019
Total elapsed time: 0.310 seconds.

tnom = 27
temp = 27
method = modified trap
totiter = 2044
traniter = 2018
tranpoints = 764
accept = 546
rejected = 218
matrix size = 15
fillins = 12
solver = Normal
Matrix Compiler1: 1.72 KB object code size  0.4/0.2/[0.2]
Matrix Compiler2: off  [0.1]/0.1/0.3

