Circuit: * C:\Users\anshuman\Desktop\TVS Internship\LTSpice Simulations\Class-A.asc

Direct Newton iteration for .op point succeeded.

Date: Sat Jun 29 17:42:44 2019
Total elapsed time: 0.141 seconds.

tnom = 27
temp = 27
method = modified trap
totiter = 1131
traniter = 1121
tranpoints = 420
accept = 274
rejected = 146
matrix size = 10
fillins = 0
solver = Normal
Matrix Compiler1: 560 bytes object code size  0.3/0.1/[0.1]
Matrix Compiler2: 762 bytes object code size  0.1/0.2/[0.1]

