Circuit: * C:\Users\anshuman\Desktop\TVS Internship\LTSpice Simulations\Class-AB Push Pull.asc

Direct Newton iteration for .op point succeeded.

Date: Fri Jun 28 14:40:38 2019
Total elapsed time: 0.105 seconds.

tnom = 27
temp = 27
method = modified trap
totiter = 2096
traniter = 2086
tranpoints = 1044
accept = 1044
rejected = 0
matrix size = 22
fillins = 13
solver = Normal
Matrix Compiler1: 2.32 KB object code size  0.5/0.3/[0.2]
Matrix Compiler2: off  [0.2]/0.3/0.2

