Circuit: * C:\Users\anshuman\Desktop\TVS Internship\LTSpice Simulations\Draft3.asc

Direct Newton iteration for .op point succeeded.

Date: Sat Jun 29 17:40:43 2019
Total elapsed time: 0.082 seconds.

tnom = 27
temp = 27
method = modified trap
totiter = 2085
traniter = 2082
tranpoints = 1042
accept = 1042
rejected = 0
matrix size = 3
fillins = 0
solver = Normal
Matrix Compiler1: 86 bytes object code size  0.1/0.0/[0.0]
Matrix Compiler2:      15 opcodes  0.1/[0.0]/0.1

