Circuit: * C:\Users\anshuman\Desktop\TVS Internship\LTSpice Simulations\Final Design.asc

Direct Newton iteration for .op point succeeded.

Date: Wed Jul 03 00:14:57 2019
Total elapsed time: 0.096 seconds.

tnom = 27
temp = 27
method = modified trap
totiter = 1086
traniter = 1073
tranpoints = 426
accept = 276
rejected = 150
matrix size = 21
fillins = 15
solver = Normal
Matrix Compiler1: 2.15 KB object code size  0.4/0.3/[0.1]
Matrix Compiler2: off  [0.3]/0.3/0.3

