Circuit: * C:\Users\anshuman\Desktop\TVS Internship\LTSpice Simulations\Last weekend try2.asc

Direct Newton iteration for .op point succeeded.

Date: Sat Jun 29 19:24:36 2019
Total elapsed time: 0.144 seconds.

tnom = 27
temp = 27
method = modified trap
totiter = 2448
traniter = 2442
tranpoints = 1050
accept = 1048
rejected = 2
matrix size = 16
fillins = 7
solver = Normal
Matrix Compiler1: 1.19 KB object code size  0.3/0.3/[0.1]
Matrix Compiler2: off  [0.2]/0.4/0.2

