Circuit: * C:\Users\anshuman\Desktop\TVS Internship\LTSpice Simulations\Last weekend try.asc

Direct Newton iteration for .op point succeeded.

Date: Thu Jul 04 14:58:23 2019
Total elapsed time: 0.125 seconds.

tnom = 27
temp = 27
method = modified trap
totiter = 811
traniter = 798
tranpoints = 400
accept = 258
rejected = 142
matrix size = 21
fillins = 15
solver = Normal
Matrix Compiler1: 2.15 KB object code size  0.5/0.3/[0.2]
Matrix Compiler2: off  [0.2]/0.2/0.3

