Circuit: * C:\Users\anshuman\Desktop\TVS Internship\LTSpice Simulations\Last try.asc

Direct Newton iteration for .op point succeeded.

Date: Fri Jun 28 13:48:19 2019
Total elapsed time: 0.114 seconds.

tnom = 27
temp = 27
method = modified trap
totiter = 2116
traniter = 2083
tranpoints = 1042
accept = 1042
rejected = 0
matrix size = 14
fillins = 6
solver = Normal
Matrix Compiler1: 1.19 KB object code size  0.4/0.2/[0.2]
Matrix Compiler2: off  [0.2]/0.3/0.3

